Circuit: * C:\Users\nyuru\OneDrive - Shirao.Takuya\Circuitting\LTspiceProject\CockcroftWaltonCircuit5to20\CockcroftWaltonCircuit.asc

.OP point found by inspection.

Date: Thu Oct 29 20:18:31 2020
Total elapsed time: 1.007 seconds.

tnom = 27
temp = 27
method = modified trap
totiter = 144981
traniter = 144981
tranpoints = 40069
accept = 24211
rejected = 15858
matrix size = 7
fillins = 0
solver = Normal
Matrix Compiler1: 526 bytes object code size  0.4/0.3/[0.2]
Matrix Compiler2: off  [0.1]/3.6/0.3

